Test_Network/network_18/Loads.txt
New Load.LOAD11 Phases=1 Bus1=1119.2 kV=0.23 kW=1 PF=0.95
New Load.LOAD12 Phases=1 Bus1=1203.3 kV=0.23 kW=1 PF=0.95
New Load.LOAD13 Phases=1 Bus1=1214.3 kV=0.23 kW=1 PF=0.95
New Load.LOAD14 Phases=1 Bus1=1230.1 kV=0.23 kW=1 PF=0.95
New Load.LOAD15 Phases=1 Bus1=1270.2 kV=0.23 kW=1 PF=0.95
New Load.LOAD16 Phases=1 Bus1=1315.2 kV=0.23 kW=1 PF=0.95
New Load.LOAD17 Phases=1 Bus1=1378.2 kV=0.23 kW=1 PF=0.95
New Load.LOAD18 Phases=1 Bus1=1401.3 kV=0.23 kW=1 PF=0.95
New Load.LOAD19 Phases=1 Bus1=1415.1 kV=0.23 kW=1 PF=0.95
New Load.LOAD110 Phases=1 Bus1=1450.3 kV=0.23 kW=1 PF=0.95
New Load.LOAD111 Phases=1 Bus1=1457.2 kV=0.23 kW=1 PF=0.95
New Load.LOAD112 Phases=1 Bus1=1491.1 kV=0.23 kW=1 PF=0.95
New Load.LOAD113 Phases=1 Bus1=1526.1 kV=0.23 kW=1 PF=0.95
New Load.LOAD114 Phases=1 Bus1=1591.3 kV=0.23 kW=1 PF=0.95
New Load.LOAD115 Phases=1 Bus1=1682.3 kV=0.23 kW=1 PF=0.95
New Load.LOAD116 Phases=1 Bus1=1710.2 kV=0.23 kW=1 PF=0.95
New Load.LOAD117 Phases=1 Bus1=1799.3 kV=0.23 kW=1 PF=0.95
New Load.LOAD118 Phases=1 Bus1=1819.1 kV=0.23 kW=1 PF=0.95
New Load.LOAD119 Phases=1 Bus1=1821.2 kV=0.23 kW=1 PF=0.95
New Load.LOAD120 Phases=1 Bus1=1884.1 kV=0.23 kW=1 PF=0.95
New Load.LOAD121 Phases=1 Bus1=1896.3 kV=0.23 kW=1 PF=0.95
New Load.LOAD122 Phases=1 Bus1=1918.3 kV=0.23 kW=1 PF=0.95
New Load.LOAD123 Phases=1 Bus1=1954.1 kV=0.23 kW=1 PF=0.95
New Load.LOAD124 Phases=1 Bus1=1960.1 kV=0.23 kW=1 PF=0.95
New Load.LOAD125 Phases=1 Bus1=1966.2 kV=0.23 kW=1 PF=0.95
New Load.LOAD126 Phases=1 Bus1=1982.3 kV=0.23 kW=1 PF=0.95
New Load.LOAD127 Phases=1 Bus1=11000.3 kV=0.23 kW=1 PF=0.95
New Load.LOAD128 Phases=1 Bus1=11058.3 kV=0.23 kW=1 PF=0.95
New Load.LOAD129 Phases=1 Bus1=11089.2 kV=0.23 kW=1 PF=0.95
New Load.LOAD130 Phases=1 Bus1=11097.2 kV=0.23 kW=1 PF=0.95
New Load.LOAD131 Phases=1 Bus1=11099.1 kV=0.23 kW=1 PF=0.95
New Load.LOAD132 Phases=1 Bus1=11105.3 kV=0.23 kW=1 PF=0.95
New Load.LOAD133 Phases=1 Bus1=11133.1 kV=0.23 kW=1 PF=0.95
New Load.LOAD134 Phases=1 Bus1=11154.3 kV=0.23 kW=1 PF=0.95
New Load.LOAD135 Phases=1 Bus1=11174.3 kV=0.23 kW=1 PF=0.95
New Load.LOAD136 Phases=1 Bus1=11187.2 kV=0.23 kW=1 PF=0.95
New Load.LOAD137 Phases=1 Bus1=11229.1 kV=0.23 kW=1 PF=0.95
New Load.LOAD138 Phases=1 Bus1=11257.3 kV=0.23 kW=1 PF=0.95
New Load.LOAD139 Phases=1 Bus1=11267.2 kV=0.23 kW=1 PF=0.95
New Load.LOAD140 Phases=1 Bus1=11300.3 kV=0.23 kW=1 PF=0.95
New Load.LOAD141 Phases=1 Bus1=11307.3 kV=0.23 kW=1 PF=0.95
New Load.LOAD142 Phases=1 Bus1=11308.1 kV=0.23 kW=1 PF=0.95
New Load.LOAD143 Phases=1 Bus1=11311.1 kV=0.23 kW=1 PF=0.95
New Load.LOAD144 Phases=1 Bus1=11314.2 kV=0.23 kW=1 PF=0.95
New Load.LOAD145 Phases=1 Bus1=11315.3 kV=0.23 kW=1 PF=0.95
New Load.LOAD146 Phases=1 Bus1=11320.1 kV=0.23 kW=1 PF=0.95
New Load.LOAD147 Phases=1 Bus1=11326.2 kV=0.23 kW=1 PF=0.95
New Load.LOAD148 Phases=1 Bus1=11327.1 kV=0.23 kW=1 PF=0.95
New Load.LOAD149 Phases=1 Bus1=11329.2 kV=0.23 kW=1 PF=0.95
New Load.LOAD150 Phases=1 Bus1=11346.3 kV=0.23 kW=1 PF=0.95
New Load.LOAD151 Phases=1 Bus1=11357.2 kV=0.23 kW=1 PF=0.95
New Load.LOAD152 Phases=1 Bus1=11391.2 kV=0.23 kW=1 PF=0.95
New Load.LOAD153 Phases=1 Bus1=11394.1 kV=0.23 kW=1 PF=0.95
New Load.LOAD154 Phases=1 Bus1=11401.3 kV=0.23 kW=1 PF=0.95
New Load.LOAD155 Phases=1 Bus1=11407.3 kV=0.23 kW=1 PF=0.95
New Load.LOAD156 Phases=1 Bus1=11408.2 kV=0.23 kW=1 PF=0.95
New Load.LOAD21 Phases=1 Bus1=271.2 kV=0.23 kW=1 PF=0.95
New Load.LOAD22 Phases=1 Bus1=2196.3 kV=0.23 kW=1 PF=0.95
New Load.LOAD23 Phases=1 Bus1=2239.2 kV=0.23 kW=1 PF=0.95
New Load.LOAD24 Phases=1 Bus1=2314.3 kV=0.23 kW=1 PF=0.95
New Load.LOAD25 Phases=1 Bus1=2405.3 kV=0.23 kW=1 PF=0.95
New Load.LOAD26 Phases=1 Bus1=2514.2 kV=0.23 kW=1 PF=0.95
New Load.LOAD27 Phases=1 Bus1=2606.3 kV=0.23 kW=1 PF=0.95
New Load.LOAD28 Phases=1 Bus1=2614.2 kV=0.23 kW=1 PF=0.95
New Load.LOAD29 Phases=1 Bus1=2712.1 kV=0.23 kW=1 PF=0.95
New Load.LOAD210 Phases=1 Bus1=2747.1 kV=0.23 kW=1 PF=0.95
New Load.LOAD211 Phases=1 Bus1=2762.3 kV=0.23 kW=1 PF=0.95
New Load.LOAD212 Phases=1 Bus1=2780.1 kV=0.23 kW=1 PF=0.95
New Load.LOAD213 Phases=1 Bus1=2791.2 kV=0.23 kW=1 PF=0.95
New Load.LOAD214 Phases=1 Bus1=2843.3 kV=0.23 kW=1 PF=0.95
New Load.LOAD215 Phases=1 Bus1=2849.1 kV=0.23 kW=1 PF=0.95
New Load.LOAD216 Phases=1 Bus1=2898.3 kV=0.23 kW=1 PF=0.95
New Load.LOAD217 Phases=1 Bus1=2908.2 kV=0.23 kW=1 PF=0.95
New Load.LOAD218 Phases=1 Bus1=2909.2 kV=0.23 kW=1 PF=0.95
New Load.LOAD219 Phases=1 Bus1=2920.2 kV=0.23 kW=1 PF=0.95
New Load.LOAD220 Phases=1 Bus1=2938.3 kV=0.23 kW=1 PF=0.95
New Load.LOAD221 Phases=1 Bus1=2975.3 kV=0.23 kW=1 PF=0.95
New Load.LOAD222 Phases=1 Bus1=2982.2 kV=0.23 kW=1 PF=0.95
New Load.LOAD223 Phases=1 Bus1=2984.3 kV=0.23 kW=1 PF=0.95
New Load.LOAD224 Phases=1 Bus1=2990.2 kV=0.23 kW=1 PF=0.95
New Load.LOAD31 Phases=1 Bus1=3225.3 kV=0.23 kW=1 PF=0.95
New Load.LOAD32 Phases=1 Bus1=3254.3 kV=0.23 kW=1 PF=0.95
New Load.LOAD33 Phases=1 Bus1=3261.1 kV=0.23 kW=1 PF=0.95
New Load.LOAD34 Phases=1 Bus1=3328.2 kV=0.23 kW=1 PF=0.95
New Load.LOAD35 Phases=1 Bus1=3340.2 kV=0.23 kW=1 PF=0.95
New Load.LOAD36 Phases=1 Bus1=3361.2 kV=0.23 kW=1 PF=0.95
New Load.LOAD37 Phases=1 Bus1=3424.2 kV=0.23 kW=1 PF=0.95
New Load.LOAD38 Phases=1 Bus1=3426.3 kV=0.23 kW=1 PF=0.95
New Load.LOAD39 Phases=1 Bus1=3560.3 kV=0.23 kW=1 PF=0.95
New Load.LOAD310 Phases=1 Bus1=3595.2 kV=0.23 kW=1 PF=0.95
New Load.LOAD311 Phases=1 Bus1=3601.1 kV=0.23 kW=1 PF=0.95
New Load.LOAD312 Phases=1 Bus1=3614.1 kV=0.23 kW=1 PF=0.95
New Load.LOAD313 Phases=1 Bus1=3631.3 kV=0.23 kW=1 PF=0.95
New Load.LOAD314 Phases=1 Bus1=3642.3 kV=0.23 kW=1 PF=0.95
New Load.LOAD315 Phases=1 Bus1=3648.2 kV=0.23 kW=1 PF=0.95
New Load.LOAD316 Phases=1 Bus1=3690.3 kV=0.23 kW=1 PF=0.95
New Load.LOAD317 Phases=1 Bus1=3701.1 kV=0.23 kW=1 PF=0.95
New Load.LOAD318 Phases=1 Bus1=3713.1 kV=0.23 kW=1 PF=0.95
New Load.LOAD319 Phases=1 Bus1=3719.1 kV=0.23 kW=1 PF=0.95
New Load.LOAD320 Phases=1 Bus1=3722.2 kV=0.23 kW=1 PF=0.95
New Load.LOAD321 Phases=1 Bus1=3738.1 kV=0.23 kW=1 PF=0.95
New Load.LOAD322 Phases=1 Bus1=3751.2 kV=0.23 kW=1 PF=0.95
New Load.LOAD323 Phases=1 Bus1=3785.3 kV=0.23 kW=1 PF=0.95
New Load.LOAD324 Phases=1 Bus1=3808.2 kV=0.23 kW=1 PF=0.95
New Load.LOAD325 Phases=1 Bus1=3810.1 kV=0.23 kW=1 PF=0.95
New Load.LOAD326 Phases=1 Bus1=3882.3 kV=0.23 kW=1 PF=0.95
New Load.LOAD327 Phases=1 Bus1=3905.2 kV=0.23 kW=1 PF=0.95
New Load.LOAD328 Phases=1 Bus1=3914.1 kV=0.23 kW=1 PF=0.95
New Load.LOAD329 Phases=1 Bus1=3925.2 kV=0.23 kW=1 PF=0.95
New Load.LOAD330 Phases=1 Bus1=3933.1 kV=0.23 kW=1 PF=0.95
New Load.LOAD331 Phases=1 Bus1=3950.1 kV=0.23 kW=1 PF=0.95
New Load.LOAD332 Phases=1 Bus1=3985.3 kV=0.23 kW=1 PF=0.95
New Load.LOAD333 Phases=1 Bus1=3991.2 kV=0.23 kW=1 PF=0.95
New Load.LOAD334 Phases=1 Bus1=31001.2 kV=0.23 kW=1 PF=0.95
New Load.LOAD335 Phases=1 Bus1=31063.3 kV=0.23 kW=1 PF=0.95
New Load.LOAD336 Phases=1 Bus1=31070.3 kV=0.23 kW=1 PF=0.95
New Load.LOAD337 Phases=1 Bus1=31078.3 kV=0.23 kW=1 PF=0.95
New Load.LOAD338 Phases=1 Bus1=31083.2 kV=0.23 kW=1 PF=0.95
New Load.LOAD339 Phases=1 Bus1=31084.3 kV=0.23 kW=1 PF=0.95
New Load.LOAD340 Phases=1 Bus1=31086.3 kV=0.23 kW=1 PF=0.95
New Load.LOAD341 Phases=1 Bus1=31094.3 kV=0.23 kW=1 PF=0.95
New Load.LOAD342 Phases=1 Bus1=31111.1 kV=0.23 kW=1 PF=0.95
New Load.LOAD343 Phases=1 Bus1=31188.3 kV=0.23 kW=1 PF=0.95
New Load.LOAD344 Phases=1 Bus1=31192.3 kV=0.23 kW=1 PF=0.95
New Load.LOAD345 Phases=1 Bus1=31209.1 kV=0.23 kW=1 PF=0.95
New Load.LOAD346 Phases=1 Bus1=31350.3 kV=0.23 kW=1 PF=0.95
New Load.LOAD347 Phases=1 Bus1=31362.2 kV=0.23 kW=1 PF=0.95
New Load.LOAD348 Phases=1 Bus1=31428.2 kV=0.23 kW=1 PF=0.95
New Load.LOAD349 Phases=1 Bus1=31452.2 kV=0.23 kW=1 PF=0.95
New Load.LOAD350 Phases=1 Bus1=31456.1 kV=0.23 kW=1 PF=0.95
New Load.LOAD351 Phases=1 Bus1=31490.1 kV=0.23 kW=1 PF=0.95
New Load.LOAD41 Phases=1 Bus1=483.1 kV=0.23 kW=1 PF=0.95
New Load.LOAD42 Phases=1 Bus1=4118.1 kV=0.23 kW=1 PF=0.95
New Load.LOAD43 Phases=1 Bus1=4179.3 kV=0.23 kW=1 PF=0.95
New Load.LOAD44 Phases=1 Bus1=4180.2 kV=0.23 kW=1 PF=0.95
New Load.LOAD45 Phases=1 Bus1=4215.3 kV=0.23 kW=1 PF=0.95
New Load.LOAD46 Phases=1 Bus1=4278.3 kV=0.23 kW=1 PF=0.95
New Load.LOAD47 Phases=1 Bus1=4309.1 kV=0.23 kW=1 PF=0.95
New Load.LOAD48 Phases=1 Bus1=4353.1 kV=0.23 kW=1 PF=0.95
New Load.LOAD49 Phases=1 Bus1=4425.3 kV=0.23 kW=1 PF=0.95
New Load.LOAD410 Phases=1 Bus1=4467.2 kV=0.23 kW=1 PF=0.95
New Load.LOAD411 Phases=1 Bus1=4495.1 kV=0.23 kW=1 PF=0.95
New Load.LOAD412 Phases=1 Bus1=4497.1 kV=0.23 kW=1 PF=0.95
New Load.LOAD413 Phases=1 Bus1=4547.2 kV=0.23 kW=1 PF=0.95
New Load.LOAD414 Phases=1 Bus1=4591.3 kV=0.23 kW=1 PF=0.95
New Load.LOAD415 Phases=1 Bus1=4617.1 kV=0.23 kW=1 PF=0.95
New Load.LOAD416 Phases=1 Bus1=4624.2 kV=0.23 kW=1 PF=0.95
New Load.LOAD417 Phases=1 Bus1=4721.2 kV=0.23 kW=1 PF=0.95
New Load.LOAD418 Phases=1 Bus1=4731.3 kV=0.23 kW=1 PF=0.95
New Load.LOAD419 Phases=1 Bus1=4749.1 kV=0.23 kW=1 PF=0.95
New Load.LOAD420 Phases=1 Bus1=4845.2 kV=0.23 kW=1 PF=0.95
New Load.LOAD421 Phases=1 Bus1=4894.3 kV=0.23 kW=1 PF=0.95
New Load.LOAD422 Phases=1 Bus1=4912.1 kV=0.23 kW=1 PF=0.95
New Load.LOAD423 Phases=1 Bus1=4936.3 kV=0.23 kW=1 PF=0.95
New Load.LOAD424 Phases=1 Bus1=4942.2 kV=0.23 kW=1 PF=0.95
New Load.LOAD425 Phases=1 Bus1=4979.3 kV=0.23 kW=1 PF=0.95
New Load.LOAD426 Phases=1 Bus1=4994.1 kV=0.23 kW=1 PF=0.95
New Load.LOAD427 Phases=1 Bus1=41016.2 kV=0.23 kW=1 PF=0.95
New Load.LOAD428 Phases=1 Bus1=41075.3 kV=0.23 kW=1 PF=0.95
New Load.LOAD429 Phases=1 Bus1=41083.1 kV=0.23 kW=1 PF=0.95
New Load.LOAD430 Phases=1 Bus1=41091.3 kV=0.23 kW=1 PF=0.95
New Load.LOAD431 Phases=1 Bus1=41112.2 kV=0.23 kW=1 PF=0.95
New Load.LOAD432 Phases=1 Bus1=41116.2 kV=0.23 kW=1 PF=0.95
New Load.LOAD433 Phases=1 Bus1=41157.3 kV=0.23 kW=1 PF=0.95
New Load.LOAD434 Phases=1 Bus1=41162.2 kV=0.23 kW=1 PF=0.95
New Load.LOAD51 Phases=1 Bus1=538.3 kV=0.23 kW=1 PF=0.95
New Load.LOAD52 Phases=1 Bus1=540.3 kV=0.23 kW=1 PF=0.95
New Load.LOAD53 Phases=1 Bus1=597.2 kV=0.23 kW=1 PF=0.95
New Load.LOAD54 Phases=1 Bus1=5104.3 kV=0.23 kW=1 PF=0.95
New Load.LOAD55 Phases=1 Bus1=5111.3 kV=0.23 kW=1 PF=0.95
New Load.LOAD56 Phases=1 Bus1=5112.2 kV=0.23 kW=1 PF=0.95
New Load.LOAD57 Phases=1 Bus1=5162.1 kV=0.23 kW=1 PF=0.95
New Load.LOAD58 Phases=1 Bus1=5184.1 kV=0.23 kW=1 PF=0.95
New Load.LOAD59 Phases=1 Bus1=5221.3 kV=0.23 kW=1 PF=0.95
New Load.LOAD510 Phases=1 Bus1=5232.1 kV=0.23 kW=1 PF=0.95
New Load.LOAD511 Phases=1 Bus1=5353.1 kV=0.23 kW=1 PF=0.95
New Load.LOAD512 Phases=1 Bus1=5368.1 kV=0.23 kW=1 PF=0.95
New Load.LOAD513 Phases=1 Bus1=5416.2 kV=0.23 kW=1 PF=0.95
New Load.LOAD514 Phases=1 Bus1=5471.3 kV=0.23 kW=1 PF=0.95
New Load.LOAD515 Phases=1 Bus1=5495.3 kV=0.23 kW=1 PF=0.95
New Load.LOAD516 Phases=1 Bus1=5497.3 kV=0.23 kW=1 PF=0.95
New Load.LOAD517 Phases=1 Bus1=5516.3 kV=0.23 kW=1 PF=0.95
New Load.LOAD518 Phases=1 Bus1=5581.2 kV=0.23 kW=1 PF=0.95
New Load.LOAD519 Phases=1 Bus1=5602.3 kV=0.23 kW=1 PF=0.95
New Load.LOAD520 Phases=1 Bus1=5610.2 kV=0.23 kW=1 PF=0.95
New Load.LOAD521 Phases=1 Bus1=5670.1 kV=0.23 kW=1 PF=0.95
New Load.LOAD522 Phases=1 Bus1=5677.3 kV=0.23 kW=1 PF=0.95
New Load.LOAD523 Phases=1 Bus1=5726.3 kV=0.23 kW=1 PF=0.95
New Load.LOAD524 Phases=1 Bus1=5729.2 kV=0.23 kW=1 PF=0.95
New Load.LOAD525 Phases=1 Bus1=5773.2 kV=0.23 kW=1 PF=0.95
New Load.LOAD526 Phases=1 Bus1=5799.3 kV=0.23 kW=1 PF=0.95
New Load.LOAD527 Phases=1 Bus1=5819.2 kV=0.23 kW=1 PF=0.95
New Load.LOAD528 Phases=1 Bus1=5841.2 kV=0.23 kW=1 PF=0.95
New Load.LOAD529 Phases=1 Bus1=5847.2 kV=0.23 kW=1 PF=0.95
New Load.LOAD530 Phases=1 Bus1=5849.3 kV=0.23 kW=1 PF=0.95
New Load.LOAD531 Phases=1 Bus1=5852.3 kV=0.23 kW=1 PF=0.95
New Load.LOAD532 Phases=1 Bus1=5854.3 kV=0.23 kW=1 PF=0.95
New Load.LOAD533 Phases=1 Bus1=5864.1 kV=0.23 kW=1 PF=0.95
New Load.LOAD534 Phases=1 Bus1=5882.2 kV=0.23 kW=1 PF=0.95
New Load.LOAD535 Phases=1 Bus1=5894.1 kV=0.23 kW=1 PF=0.95
New Load.LOAD536 Phases=1 Bus1=5897.2 kV=0.23 kW=1 PF=0.95
New Load.LOAD537 Phases=1 Bus1=5936.2 kV=0.23 kW=1 PF=0.95
New Load.LOAD538 Phases=1 Bus1=5948.3 kV=0.23 kW=1 PF=0.95
New Load.LOAD539 Phases=1 Bus1=5953.1 kV=0.23 kW=1 PF=0.95
New Load.LOAD540 Phases=1 Bus1=5964.3 kV=0.23 kW=1 PF=0.95
New Load.LOAD541 Phases=1 Bus1=5976.1 kV=0.23 kW=1 PF=0.95
New Load.LOAD542 Phases=1 Bus1=5983.1 kV=0.23 kW=1 PF=0.95
New Load.LOAD61 Phases=1 Bus1=6122.2 kV=0.23 kW=1 PF=0.95
New Load.LOAD62 Phases=1 Bus1=6124.3 kV=0.23 kW=1 PF=0.95
New Load.LOAD63 Phases=1 Bus1=6215.2 kV=0.23 kW=1 PF=0.95
New Load.LOAD64 Phases=1 Bus1=6237.3 kV=0.23 kW=1 PF=0.95
New Load.LOAD65 Phases=1 Bus1=6272.3 kV=0.23 kW=1 PF=0.95
New Load.LOAD66 Phases=1 Bus1=6274.3 kV=0.23 kW=1 PF=0.95
New Load.LOAD67 Phases=1 Bus1=6382.3 kV=0.23 kW=1 PF=0.95
New Load.LOAD68 Phases=1 Bus1=6389.1 kV=0.23 kW=1 PF=0.95
New Load.LOAD69 Phases=1 Bus1=6392.1 kV=0.23 kW=1 PF=0.95
New Load.LOAD610 Phases=1 Bus1=6399.1 kV=0.23 kW=1 PF=0.95
New Load.LOAD611 Phases=1 Bus1=6422.2 kV=0.23 kW=1 PF=0.95
New Load.LOAD612 Phases=1 Bus1=6433.3 kV=0.23 kW=1 PF=0.95
New Load.LOAD613 Phases=1 Bus1=6442.3 kV=0.23 kW=1 PF=0.95
New Load.LOAD614 Phases=1 Bus1=6461.2 kV=0.23 kW=1 PF=0.95
New Load.LOAD615 Phases=1 Bus1=6473.1 kV=0.23 kW=1 PF=0.95
New Load.LOAD616 Phases=1 Bus1=6477.3 kV=0.23 kW=1 PF=0.95
New Load.LOAD617 Phases=1 Bus1=6481.2 kV=0.23 kW=1 PF=0.95
New Load.LOAD618 Phases=1 Bus1=6491.1 kV=0.23 kW=1 PF=0.95
New Load.LOAD619 Phases=1 Bus1=6503.3 kV=0.23 kW=1 PF=0.95
New Load.LOAD620 Phases=1 Bus1=6509.3 kV=0.23 kW=1 PF=0.95
New Load.LOAD621 Phases=1 Bus1=6528.2 kV=0.23 kW=1 PF=0.95
New Load.LOAD622 Phases=1 Bus1=6531.3 kV=0.23 kW=1 PF=0.95
New Load.LOAD71 Phases=1 Bus1=745.1 kV=0.23 kW=1 PF=0.95
New Load.LOAD72 Phases=1 Bus1=7141.2 kV=0.23 kW=1 PF=0.95
New Load.LOAD73 Phases=1 Bus1=7143.3 kV=0.23 kW=1 PF=0.95
New Load.LOAD74 Phases=1 Bus1=7164.3 kV=0.23 kW=1 PF=0.95
New Load.LOAD75 Phases=1 Bus1=7166.3 kV=0.23 kW=1 PF=0.95
New Load.LOAD76 Phases=1 Bus1=7187.1 kV=0.23 kW=1 PF=0.95
New Load.LOAD77 Phases=1 Bus1=7264.3 kV=0.23 kW=1 PF=0.95
New Load.LOAD78 Phases=1 Bus1=7328.1 kV=0.23 kW=1 PF=0.95
New Load.LOAD79 Phases=1 Bus1=7342.3 kV=0.23 kW=1 PF=0.95
New Load.LOAD710 Phases=1 Bus1=7370.3 kV=0.23 kW=1 PF=0.95
New Load.LOAD711 Phases=1 Bus1=7382.2 kV=0.23 kW=1 PF=0.95
New Load.LOAD712 Phases=1 Bus1=7391.1 kV=0.23 kW=1 PF=0.95
New Load.LOAD713 Phases=1 Bus1=7402.2 kV=0.23 kW=1 PF=0.95
New Load.LOAD714 Phases=1 Bus1=7411.2 kV=0.23 kW=1 PF=0.95
New Load.LOAD715 Phases=1 Bus1=7447.1 kV=0.23 kW=1 PF=0.95
New Load.LOAD716 Phases=1 Bus1=7503.2 kV=0.23 kW=1 PF=0.95
New Load.LOAD717 Phases=1 Bus1=7508.2 kV=0.23 kW=1 PF=0.95
New Load.LOAD718 Phases=1 Bus1=7516.2 kV=0.23 kW=1 PF=0.95
New Load.LOAD719 Phases=1 Bus1=7526.1 kV=0.23 kW=1 PF=0.95
New Load.LOAD720 Phases=1 Bus1=7528.2 kV=0.23 kW=1 PF=0.95
New Load.LOAD721 Phases=1 Bus1=7542.1 kV=0.23 kW=1 PF=0.95
New Load.LOAD722 Phases=1 Bus1=7555.3 kV=0.23 kW=1 PF=0.95
New Load.LOAD723 Phases=1 Bus1=7561.3 kV=0.23 kW=1 PF=0.95
New Load.LOAD724 Phases=1 Bus1=7564.1 kV=0.23 kW=1 PF=0.95
New Load.LOAD725 Phases=1 Bus1=7585.3 kV=0.23 kW=1 PF=0.95
New Load.LOAD726 Phases=1 Bus1=7616.1 kV=0.23 kW=1 PF=0.95
New Load.LOAD727 Phases=1 Bus1=7631.1 kV=0.23 kW=1 PF=0.95
New Load.LOAD728 Phases=1 Bus1=7635.3 kV=0.23 kW=1 PF=0.95
New Load.LOAD81 Phases=1 Bus1=879.1 kV=0.23 kW=1 PF=0.95
New Load.LOAD82 Phases=1 Bus1=8129.2 kV=0.23 kW=1 PF=0.95
New Load.LOAD83 Phases=1 Bus1=8137.2 kV=0.23 kW=1 PF=0.95
New Load.LOAD84 Phases=1 Bus1=8158.1 kV=0.23 kW=1 PF=0.95
New Load.LOAD85 Phases=1 Bus1=8201.3 kV=0.23 kW=1 PF=0.95
New Load.LOAD86 Phases=1 Bus1=8209.2 kV=0.23 kW=1 PF=0.95
New Load.LOAD87 Phases=1 Bus1=8229.2 kV=0.23 kW=1 PF=0.95
New Load.LOAD88 Phases=1 Bus1=8241.3 kV=0.23 kW=1 PF=0.95
New Load.LOAD89 Phases=1 Bus1=8249.1 kV=0.23 kW=1 PF=0.95
New Load.LOAD810 Phases=1 Bus1=8255.1 kV=0.23 kW=1 PF=0.95
New Load.LOAD811 Phases=1 Bus1=8283.3 kV=0.23 kW=1 PF=0.95
New Load.LOAD812 Phases=1 Bus1=8305.2 kV=0.23 kW=1 PF=0.95
New Load.LOAD813 Phases=1 Bus1=8312.2 kV=0.23 kW=1 PF=0.95
New Load.LOAD814 Phases=1 Bus1=8318.3 kV=0.23 kW=1 PF=0.95
New Load.LOAD815 Phases=1 Bus1=8320.2 kV=0.23 kW=1 PF=0.95
New Load.LOAD816 Phases=1 Bus1=8326.2 kV=0.23 kW=1 PF=0.95
New Load.LOAD817 Phases=1 Bus1=8331.2 kV=0.23 kW=1 PF=0.95
New Load.LOAD818 Phases=1 Bus1=8333.3 kV=0.23 kW=1 PF=0.95
New Load.LOAD819 Phases=1 Bus1=8340.1 kV=0.23 kW=1 PF=0.95
New Load.LOAD820 Phases=1 Bus1=8345.2 kV=0.23 kW=1 PF=0.95
New Load.LOAD821 Phases=1 Bus1=8347.3 kV=0.23 kW=1 PF=0.95
New Load.LOAD91 Phases=1 Bus1=9130.3 kV=0.23 kW=1 PF=0.95
New Load.LOAD92 Phases=1 Bus1=9163.1 kV=0.23 kW=1 PF=0.95
New Load.LOAD93 Phases=1 Bus1=9179.3 kV=0.23 kW=1 PF=0.95
New Load.LOAD94 Phases=1 Bus1=9273.3 kV=0.23 kW=1 PF=0.95
New Load.LOAD95 Phases=1 Bus1=9295.2 kV=0.23 kW=1 PF=0.95
New Load.LOAD96 Phases=1 Bus1=9298.1 kV=0.23 kW=1 PF=0.95
New Load.LOAD97 Phases=1 Bus1=9333.1 kV=0.23 kW=1 PF=0.95
New Load.LOAD98 Phases=1 Bus1=9361.2 kV=0.23 kW=1 PF=0.95
New Load.LOAD99 Phases=1 Bus1=9363.3 kV=0.23 kW=1 PF=0.95
New Load.LOAD910 Phases=1 Bus1=9372.2 kV=0.23 kW=1 PF=0.95
New Load.LOAD911 Phases=1 Bus1=9401.1 kV=0.23 kW=1 PF=0.95
New Load.LOAD912 Phases=1 Bus1=9403.1 kV=0.23 kW=1 PF=0.95
New Load.LOAD913 Phases=1 Bus1=9417.1 kV=0.23 kW=1 PF=0.95
New Load.LOAD914 Phases=1 Bus1=9434.3 kV=0.23 kW=1 PF=0.95
New Load.LOAD915 Phases=1 Bus1=9453.1 kV=0.23 kW=1 PF=0.95
New Load.LOAD916 Phases=1 Bus1=9457.1 kV=0.23 kW=1 PF=0.95
New Load.LOAD917 Phases=1 Bus1=9542.3 kV=0.23 kW=1 PF=0.95
New Load.LOAD918 Phases=1 Bus1=9566.1 kV=0.23 kW=1 PF=0.95
New Load.LOAD919 Phases=1 Bus1=9575.1 kV=0.23 kW=1 PF=0.95
New Load.LOAD920 Phases=1 Bus1=9614.3 kV=0.23 kW=1 PF=0.95
New Load.LOAD921 Phases=1 Bus1=9624.3 kV=0.23 kW=1 PF=0.95
New Load.LOAD922 Phases=1 Bus1=9630.3 kV=0.23 kW=1 PF=0.95
New Load.LOAD923 Phases=1 Bus1=9648.3 kV=0.23 kW=1 PF=0.95
New Load.LOAD924 Phases=1 Bus1=9687.3 kV=0.23 kW=1 PF=0.95
New Load.LOAD925 Phases=1 Bus1=9691.2 kV=0.23 kW=1 PF=0.95
New Load.LOAD926 Phases=1 Bus1=9695.3 kV=0.23 kW=1 PF=0.95
New Load.LOAD927 Phases=1 Bus1=9713.2 kV=0.23 kW=1 PF=0.95
New Load.LOAD928 Phases=1 Bus1=9778.3 kV=0.23 kW=1 PF=0.95
New Load.LOAD929 Phases=1 Bus1=9795.3 kV=0.23 kW=1 PF=0.95
New Load.LOAD930 Phases=1 Bus1=9801.1 kV=0.23 kW=1 PF=0.95
New Load.LOAD931 Phases=1 Bus1=9851.1 kV=0.23 kW=1 PF=0.95
New Load.LOAD932 Phases=1 Bus1=9878.3 kV=0.23 kW=1 PF=0.95
New Load.LOAD933 Phases=1 Bus1=9913.1 kV=0.23 kW=1 PF=0.95
New Load.LOAD934 Phases=1 Bus1=9952.3 kV=0.23 kW=1 PF=0.95
New Load.LOAD935 Phases=1 Bus1=9978.3 kV=0.23 kW=1 PF=0.95
New Load.LOAD936 Phases=1 Bus1=9989.3 kV=0.23 kW=1 PF=0.95
New Load.LOAD937 Phases=1 Bus1=91021.2 kV=0.23 kW=1 PF=0.95
New Load.LOAD938 Phases=1 Bus1=91041.1 kV=0.23 kW=1 PF=0.95
New Load.LOAD939 Phases=1 Bus1=91057.1 kV=0.23 kW=1 PF=0.95
New Load.LOAD940 Phases=1 Bus1=91118.3 kV=0.23 kW=1 PF=0.95
New Load.LOAD941 Phases=1 Bus1=91122.2 kV=0.23 kW=1 PF=0.95
New Load.LOAD942 Phases=1 Bus1=91131.2 kV=0.23 kW=1 PF=0.95
New Load.LOAD943 Phases=1 Bus1=91173.2 kV=0.23 kW=1 PF=0.95
New Load.LOAD944 Phases=1 Bus1=91180.1 kV=0.23 kW=1 PF=0.95
New Load.LOAD945 Phases=1 Bus1=91181.3 kV=0.23 kW=1 PF=0.95
New Load.LOAD946 Phases=1 Bus1=91182.3 kV=0.23 kW=1 PF=0.95
New Load.LOAD947 Phases=1 Bus1=91191.3 kV=0.23 kW=1 PF=0.95
New Load.LOAD948 Phases=1 Bus1=91198.3 kV=0.23 kW=1 PF=0.95
New Load.LOAD949 Phases=1 Bus1=91203.2 kV=0.23 kW=1 PF=0.95
New Load.LOAD950 Phases=1 Bus1=91205.1 kV=0.23 kW=1 PF=0.95
